Circuit: * P:\CESI CPIA2\Bloc Signaux\Livrable N°1_Chanou_Mourès\LTSPICE\Ampli+Potentiomètre.asc

WARNING: Node N006 is floating.

WARNING: Less than two connections to node N006.  This node is used by C.
Direct Newton iteration for .op point succeeded.

Date: Mon Nov 18 20:47:47 2024
Total elapsed time: 0.109 seconds.

tnom = 27
temp = 27
method = modified trap
totiter = 2092
traniter = 2085
tranpoints = 1042
accept = 1042
rejected = 0
matrix size = 11
fillins = 0
solver = Normal
Matrix Compiler1: 610 bytes object code size  0.2/0.1/[0.1]
Matrix Compiler2: off  [0.1]/0.2/0.2

